#
# Generated by PyRED version APR-2018
#     http://q4md-forcefieldtools.org
#
@<TRIPOS>MOLECULE
BEN
    12    12     1     0     1
SMALL
USER_CHARGES
@<TRIPOS>ATOM
   1 C1     1.928888  -1.199220   0.108198 CA   1   BEN -0.2086  0.0000 ****
   2 H1     2.454917  -2.132364   0.202754 HA   1   BEN  0.1447  0.0000 ****
   3 C2     0.567756  -1.199936  -0.150332 CA   1   BEN -0.0265  0.0000 ****
   4 H2     0.039486  -2.129044  -0.260887 HA   1   BEN  0.1015  0.0000 ****
   5 C3    -0.122813   0.000006  -0.274038 CA   1   BEN  0.0751  0.0000 ****
   6 C4     0.567763   1.199941  -0.150313 CA   1   BEN -0.0265  0.0000 ****
   7 H3     0.039499   2.129054  -0.260854 HA   1   BEN  0.1015  0.0000 ****
   8 C5     1.928895   1.199213   0.108213 CA   1   BEN -0.2086  0.0000 ****
   9 H4     2.454930   2.132352   0.202780 HA   1   BEN  0.1447  0.0000 ****
  10 C6     2.610478  -0.000007   0.239125 CA   1   BEN -0.0876  0.0000 ****
  11 H5     3.667457  -0.000012   0.437223 HA   1   BEN  0.1308  0.0000 ****
  12 S1    -1.874333   0.000013  -0.628380 S    1   BEN -0.1405  0.0000 ****
@<TRIPOS>BOND
    1     1     2 1
    2     1     3 1
    3     1    10 1
    4     3     4 1
    5     3     5 1
    6     5     6 1
    7     5    12 1
    8     6     7 1
    9     6     8 1
   10     8     9 1
   11     8    10 1
   12    10    11 1
@<TRIPOS>SUBSTRUCTURE
      1 BEN               1 ****               0 ****  ****
@<TRIPOS>HEADTAIL
S1 1
0 0
@<TRIPOS>RESIDUECONNECT
1 S1 0 0 0 0 0
