#
# Generated by PyRED version APR-2018
#     http://q4md-forcefieldtools.org
#
@<TRIPOS>MOLECULE
BUT
    13    12     1     0     1
SMALL
USER_CHARGES
@<TRIPOS>ATOM
   1 C2    -1.278496   0.523147  -0.000001 CT   1   BUT -0.0438  0.0000 ****
   2 H4    -1.280048   1.176054  -0.870349 HC   1   BUT  0.0119  0.0000 ****
   3 H5    -1.280052   1.176054   0.870347 HC   1   BUT  0.0119  0.0000 ****
   4 C3     0.000000  -0.316663   0.000007 CT   1   BUT  0.0013  0.0000 ****
   5 H6    -0.000001  -0.970726   0.870720 HC   1   BUT  0.0104  0.0000 ****
   6 H7     0.000000  -0.970727  -0.870705 HC   1   BUT  0.0104  0.0000 ****
   7 C4     1.278497   0.523148   0.000002 CT   1   BUT  0.0296  0.0000 ****
   8 H8     1.280049   1.176056  -0.870345 HC   1   BUT  0.0004  0.0000 ****
   9 H9     1.280054   1.176053   0.870350 HC   1   BUT  0.0004  0.0000 ****
  10 C5     2.550670  -0.323830  -0.000004 CT   1   BUT -0.0781  0.0000 ****
  11 H10    3.439362   0.299855  -0.000006 HC   1   BUT  0.0152  0.0000 ****
  12 H11    2.595707  -0.963581   0.876932 HC   1   BUT  0.0152  0.0000 ****
  13 H12    2.595701  -0.963579  -0.876942 HC   1   BUT  0.0152  0.0000 ****
@<TRIPOS>BOND
    1     1     2 1
    2     1     3 1
    3     1     4 1
    4     4     5 1
    5     4     6 1
    6     4     7 1
    7     7     8 1
    8     7     9 1
    9     7    10 1
   10    10    11 1
   11    10    12 1
   12    10    13 1
@<TRIPOS>SUBSTRUCTURE
      1 BUT               1 ****               0 ****  ****
@<TRIPOS>HEADTAIL
C2 1
0 0
@<TRIPOS>RESIDUECONNECT
1 C2 0 0 0 0 0
