#
# Generated by PyRED version APR-2018
#     http://q4md-forcefieldtools.org
#
@<TRIPOS>MOLECULE
MUS
    41    40     1     0     1
SMALL
USER_CHARGES
@<TRIPOS>ATOM
   1 C2     9.500456  -0.522706  -0.000002 CT   1   MUS -0.0742  0.0000 ****
   2 H23   10.408858   0.072655  -0.000005 HC   1   MUS  0.0117  0.0000 ****
   3 H24    9.525308  -1.163897   0.876833 HC   1   MUS  0.0117  0.0000 ****
   4 H25    9.525307  -1.163904  -0.876831 HC   1   MUS  0.0117  0.0000 ****
   5 C1     8.254722   0.362987  -0.000004 CT   1   MUS  0.0376  0.0000 ****
   6 H1     8.276848   1.015716  -0.870289 HC   1   MUS -0.0061  0.0000 ****
   7 H2     8.276850   1.015723   0.870275 HC   1   MUS -0.0061  0.0000 ****
   8 C3     6.950379  -0.436443   0.000001 CT   1   MUS  0.0179  0.0000 ****
   9 H3     6.931315  -1.090300  -0.870596 HC   1   MUS -0.0023  0.0000 ****
  10 H4     6.931316  -1.090293   0.870602 HC   1   MUS -0.0023  0.0000 ****
  11 C4     5.698580   0.442895  -0.000002 CT   1   MUS  0.0039  0.0000 ****
  12 H5     5.719245   1.096598   0.870625 HC   1   MUS -0.0092  0.0000 ****
  13 H6     5.719242   1.096590  -0.870634 HC   1   MUS -0.0092  0.0000 ****
  14 C5     4.394520  -0.357237   0.000003 CT   1   MUS  0.0214  0.0000 ****
  15 H7     4.374541  -1.010988  -0.870522 HC   1   MUS -0.0129  0.0000 ****
  16 H8     4.374542  -1.010979   0.870535 HC   1   MUS -0.0129  0.0000 ****
  17 C6     3.142444   0.522042  -0.000000 CT   1   MUS  0.0218  0.0000 ****
  18 H9     3.163291   1.175892   0.870603 HC   1   MUS -0.0110  0.0000 ****
  19 H10    3.163290   1.175883  -0.870610 HC   1   MUS -0.0110  0.0000 ****
  20 C7     1.838075  -0.277713   0.000005 CT   1   MUS  0.0280  0.0000 ****
  21 H11    1.818149  -0.931630  -0.870442 HC   1   MUS -0.0118  0.0000 ****
  22 H12    1.818149  -0.931620   0.870460 HC   1   MUS -0.0118  0.0000 ****
  23 C8     0.585400   0.600898  -0.000000 CT   1   MUS  0.0157  0.0000 ****
  24 H13    0.606659   1.254990   0.870656 HC   1   MUS -0.0166  0.0000 ****
  25 H14    0.606658   1.254979  -0.870665 HC   1   MUS -0.0166  0.0000 ****
  26 C9    -0.719226  -0.198621   0.000005 CT   1   MUS  0.0150  0.0000 ****
  27 H15   -0.739879  -0.852529  -0.870286 HC   1   MUS -0.0114  0.0000 ****
  28 H16   -0.739879  -0.852517   0.870306 HC   1   MUS -0.0114  0.0000 ****
  29 C10   -1.973084   0.678495  -0.000002 CT   1   MUS  0.0268  0.0000 ****
  30 H17   -1.951072   1.332744   0.871080 HC   1   MUS -0.0140  0.0000 ****
  31 H18   -1.951072   1.332731  -0.871093 HC   1   MUS -0.0140  0.0000 ****
  32 C11   -3.272858  -0.129813   0.000004 CT   1   MUS  0.0505  0.0000 ****
  33 H19   -3.305312  -0.776143  -0.871226 HC   1   MUS  0.0100  0.0000 ****
  34 H20   -3.305314  -0.776127   0.871246 HC   1   MUS  0.0100  0.0000 ****
  35 C12   -4.515945   0.753139  -0.000006 CT   1   MUS -0.1913  0.0000 ****
  36 H21   -4.540158   1.390970   0.877442 H1   1   MUS  0.0503  0.0000 ****
  37 H22   -4.540156   1.390954  -0.877465 H1   1   MUS  0.0503  0.0000 ****
  38 S1    -6.049584  -0.177098  -0.000001 S    1   MUS  1.1456  0.0000 ****
  39 O1    -7.082554   0.846639  -0.000011 O    1   MUS -0.6946  0.0000 ****
  40 O2    -6.000857  -0.970176  -1.219936 O    1   MUS -0.6946  0.0000 ****
  41 O3    -6.000861  -0.970146   1.219948 O    1   MUS -0.6946  0.0000 ****
@<TRIPOS>BOND
    1     1     2 1
    2     1     3 1
    3     1     4 1
    4     1     5 1
    5     5     6 1
    6     5     7 1
    7     5     8 1
    8     8     9 1
    9     8    10 1
   10     8    11 1
   11    11    12 1
   12    11    13 1
   13    11    14 1
   14    14    15 1
   15    14    16 1
   16    14    17 1
   17    17    18 1
   18    17    19 1
   19    17    20 1
   20    20    21 1
   21    20    22 1
   22    20    23 1
   23    23    24 1
   24    23    25 1
   25    23    26 1
   26    26    27 1
   27    26    28 1
   28    26    29 1
   29    29    30 1
   30    29    31 1
   31    29    32 1
   32    32    33 1
   33    32    34 1
   34    32    35 1
   35    35    36 1
   36    35    37 1
   37    35    38 1
   38    38    39 1
   39    38    40 1
   40    38    41 1
@<TRIPOS>SUBSTRUCTURE
      1 MUS               1 ****               0 ****  ****
@<TRIPOS>HEADTAIL
0 0
0 0
@<TRIPOS>RESIDUECONNECT
1 0 0 0 0 0 0
