#
# Generated by PyRED version APR-2018
#     http://q4md-forcefieldtools.org
#
@<TRIPOS>MOLECULE
OCT
    29    28     1     0     1
SMALL
USER_CHARGES
@<TRIPOS>ATOM
   1 C1     5.106794  -0.368551   0.000000 CT   1   OCT -0.0742  0.0000 ****
   2 H1     5.995550   0.255074   0.000000 HC   1   OCT  0.0145  0.0000 ****
   3 H2     5.151843  -1.008331  -0.876925 HC   1   OCT  0.0145  0.0000 ****
   4 H3     5.151843  -1.008331   0.876926 HC   1   OCT  0.0145  0.0000 ****
   5 C2     3.834619   0.478431   0.000000 CT   1   OCT  0.0330  0.0000 ****
   6 H4     3.836259   1.131357   0.870316 HC   1   OCT -0.0030  0.0000 ****
   7 H5     3.836259   1.131357  -0.870315 HC   1   OCT -0.0030  0.0000 ****
   8 C3     2.556051  -0.361543   0.000000 CT   1   OCT  0.0099  0.0000 ****
   9 H6     2.557077  -1.015472  -0.870667 HC   1   OCT -0.0001  0.0000 ****
  10 H7     2.557077  -1.015471   0.870668 HC   1   OCT -0.0001  0.0000 ****
  11 C4     1.278042   0.479131  -0.000001 CT   1   OCT  0.0067  0.0000 ****
  12 H8     1.278098   1.132899   0.870660 HC   1   OCT -0.0066  0.0000 ****
  13 H9     1.278099   1.132899  -0.870661 HC   1   OCT -0.0066  0.0000 ****
  14 C5     0.000000  -0.361759  -0.000001 CT   1   OCT  0.0244  0.0000 ****
  15 H10    0.000000  -1.015512  -0.870635 HC   1   OCT -0.0117  0.0000 ****
  16 H11    0.000000  -1.015513   0.870634 HC   1   OCT -0.0117  0.0000 ****
  17 C6    -1.278042   0.479130  -0.000000 CT   1   OCT  0.0067  0.0000 ****
  18 H12   -1.278099   1.132899   0.870660 HC   1   OCT -0.0066  0.0000 ****
  19 H13   -1.278099   1.132899  -0.870661 HC   1   OCT -0.0066  0.0000 ****
  20 C7    -2.556051  -0.361543  -0.000000 CT   1   OCT  0.0099  0.0000 ****
  21 H14   -2.557077  -1.015471  -0.870668 HC   1   OCT -0.0001  0.0000 ****
  22 H15   -2.557076  -1.015473   0.870667 HC   1   OCT -0.0001  0.0000 ****
  23 C8    -3.834619   0.478431   0.000001 CT   1   OCT  0.0330  0.0000 ****
  24 H16   -3.836259   1.131356   0.870317 HC   1   OCT -0.0030  0.0000 ****
  25 H17   -3.836259   1.131357  -0.870314 HC   1   OCT -0.0030  0.0000 ****
  26 C9    -5.106794  -0.368551   0.000000 CT   1   OCT -0.0742  0.0000 ****
  27 H18   -5.995550   0.255075   0.000001 HC   1   OCT  0.0145  0.0000 ****
  28 H19   -5.151843  -1.008329  -0.876926 HC   1   OCT  0.0145  0.0000 ****
  29 H20   -5.151843  -1.008332   0.876925 HC   1   OCT  0.0145  0.0000 ****
@<TRIPOS>BOND
    1     1     2 1
    2     1     3 1
    3     1     4 1
    4     1     5 1
    5     5     6 1
    6     5     7 1
    7     5     8 1
    8     8     9 1
    9     8    10 1
   10     8    11 1
   11    11    12 1
   12    11    13 1
   13    11    14 1
   14    14    15 1
   15    14    16 1
   16    14    17 1
   17    17    18 1
   18    17    19 1
   19    17    20 1
   20    20    21 1
   21    20    22 1
   22    20    23 1
   23    23    24 1
   24    23    25 1
   25    23    26 1
   26    26    27 1
   27    26    28 1
   28    26    29 1
@<TRIPOS>SUBSTRUCTURE
      1 OCT               1 ****               0 ****  ****
@<TRIPOS>HEADTAIL
0 0
0 0
@<TRIPOS>RESIDUECONNECT
1 0 0 0 0 0 0
