#
# Generated by PyRED version APR-2018
#     http://q4md-forcefieldtools.org
#
@<TRIPOS>MOLECULE
PET
    21    21     1     0     1
SMALL
USER_CHARGES
@<TRIPOS>ATOM
   1 C1    -0.125843  -0.000000   0.364226 CA   1   PET  0.0168  0.0000 ****
   2 C2    -0.819831   1.193357   0.196526 CA   1   PET -0.1239  0.0000 ****
   3 H1    -0.304313   2.129516   0.328070 HA   1   PET  0.1254  0.0000 ****
   4 C3    -2.165636   1.196160  -0.132224 CA   1   PET -0.1835  0.0000 ****
   5 H2    -2.683674   2.131034  -0.254522 HA   1   PET  0.1371  0.0000 ****
   6 C4    -2.844296   0.000000  -0.298555 CA   1   PET -0.0838  0.0000 ****
   7 H3    -3.889717   0.000000  -0.550880 HA   1   PET  0.1177  0.0000 ****
   8 C5    -2.165636  -1.196160  -0.132224 CA   1   PET -0.1835  0.0000 ****
   9 H4    -2.683674  -2.131034  -0.254522 HA   1   PET  0.1371  0.0000 ****
  10 C6    -0.819831  -1.193358   0.196526 CA   1   PET -0.1239  0.0000 ****
  11 H5    -0.304313  -2.129516   0.328070 HA   1   PET  0.1254  0.0000 ****
  12 C7     1.352916  -0.000000   0.688465 CT   1   PET -0.0738  0.0000 ****
  13 H6     1.591214  -0.870384   1.294188 HC   1   PET  0.0358  0.0000 ****
  14 H7     1.591214   0.870385   1.294186 HC   1   PET  0.0358  0.0000 ****
  15 C8     2.242828  -0.000000  -0.562885 CT   1   PET  0.0892  0.0000 ****
  16 H8     2.004496  -0.869639  -1.169676 HC   1   PET -0.0085  0.0000 ****
  17 H9     2.004494   0.869636  -1.169679 HC   1   PET -0.0085  0.0000 ****
  18 C9     3.733072   0.000000  -0.225076 CT   1   PET -0.0669  0.0000 ****
  19 H10    4.338855  -0.000003  -1.125841 HC   1   PET  0.0120  0.0000 ****
  20 H11    4.004479   0.877025   0.355956 HC   1   PET  0.0120  0.0000 ****
  21 H12    4.004479  -0.877019   0.355964 HC   1   PET  0.0120  0.0000 ****
@<TRIPOS>BOND
    1     1     2 1
    2     1    10 1
    3     1    12 1
    4     2     3 1
    5     2     4 1
    6     4     5 1
    7     4     6 1
    8     6     7 1
    9     6     8 1
   10     8     9 1
   11     8    10 1
   12    10    11 1
   13    12    13 1
   14    12    14 1
   15    12    15 1
   16    15    16 1
   17    15    17 1
   18    15    18 1
   19    18    19 1
   20    18    20 1
   21    18    21 1
@<TRIPOS>SUBSTRUCTURE
      1 PET               1 ****               0 ****  ****
@<TRIPOS>HEADTAIL
0 0
0 0
@<TRIPOS>RESIDUECONNECT
1 0 0 0 0 0 0
