@<TRIPOS>MOLECULE
BEN
	12	12	1
SMALL
USER_CHARGES
@<TRIPOS>ATOM
   1   C1        1.9289   -1.1992    0.1082   CA 1 BEN -0.2086
   2   H1        2.4549   -2.1324    0.2028   HA 1 BEN  0.1447
   3   C2        0.5678   -1.1999   -0.1503   CA 1 BEN -0.0265
   4   H2        0.0395   -2.1290   -0.2609   HA 1 BEN  0.1015
   5   C3       -0.1228    0.0000   -0.2740   CA 1 BEN  0.0751
   6   C4        0.5678    1.1999   -0.1503   CA 1 BEN -0.0265
   7   H3        0.0395    2.1291   -0.2609   HA 1 BEN  0.1015
   8   C5        1.9289    1.1992    0.1082   CA 1 BEN -0.2086
   9   H4        2.4549    2.1324    0.2028   HA 1 BEN  0.1447
  10   C6        2.6105   -0.0000    0.2391   CA 1 BEN -0.0876
  11   H5        3.6675   -0.0000    0.4372   HA 1 BEN  0.1308
  12   ST       -1.8743    0.0000   -0.6284    S 1 BEN -0.1405
@<TRIPOS>BOND
    1     1     2  1
    2     1     3  1
    3     1    10  1
    4     3     4  1
    5     3     5  1
    6     5     6  1
    7     6     7  1
    8     6     8  1
    9     8     9  1
   10     8    10  1
   11    10    11  1
   12    12     5  1
@<TRIPOS>SUBSTRUCTURE
	1 BEN			1 ****			0 ****  ****
