@<TRIPOS>MOLECULE
MUS
	38	37	1
SMALL
USER_CHARGES
@<TRIPOS>ATOM
   1   C2        7.1313    0.3791   -0.0000   CT 1 MUS -0.1356
   2  H23        7.1654    1.0167   -0.8768   H1 1 MUS  0.0962
   3  H24        7.1654    1.0167    0.8768   H1 1 MUS  0.0962
   4   C3        5.8471   -0.4493   -0.0000   CT 1 MUS  0.0312
   5   H3        5.8377   -1.0979   -0.8719   HC 1 MUS  0.0390
   6   H4        5.8377   -1.0979    0.8719   HC 1 MUS  0.0390
   7   C4        4.5943    0.4305   -0.0000   CT 1 MUS  0.0091
   8   H5        4.6128    1.0831    0.8711   HC 1 MUS -0.0025
   9   H6        4.6128    1.0830   -0.8711   HC 1 MUS -0.0025
  10   C5        3.2936   -0.3751   -0.0000   CT 1 MUS  0.0315
  11   H7        3.2756   -1.0282   -0.8707   HC 1 MUS -0.0104
  12   H8        3.2756   -1.0282    0.8707   HC 1 MUS -0.0104
  13   C6        2.0413    0.5039   -0.0000   CT 1 MUS  0.0265
  14   H9        2.0622    1.1576    0.8707   HC 1 MUS -0.0081
  15  H10        2.0622    1.1576   -0.8707   HC 1 MUS -0.0081
  16   C7        0.7366   -0.2952   -0.0000   CT 1 MUS  0.0331
  17  H11        0.7159   -0.9489   -0.8705   HC 1 MUS -0.0079
  18  H12        0.7159   -0.9489    0.8705   HC 1 MUS -0.0079
  19   C8       -0.5139    0.5864   -0.0000   CT 1 MUS  0.0203
  20  H13       -0.4908    1.2404    0.8707   HC 1 MUS -0.0132
  21  H14       -0.4908    1.2404   -0.8707   HC 1 MUS -0.0132
  22   C9       -1.8211   -0.2088   -0.0000   CT 1 MUS  0.0200
  23  H15       -1.8442   -0.8626   -0.8703   HC 1 MUS -0.0081
  24  H16       -1.8442   -0.8626    0.8703   HC 1 MUS -0.0081
  25  C10       -3.0711    0.6738   -0.0000   CT 1 MUS  0.0311
  26  H17       -3.0461    1.3279    0.8711   HC 1 MUS -0.0110
  27  H18       -3.0461    1.3279   -0.8711   HC 1 MUS -0.0110
  28  C11       -4.3747   -0.1282    0.0000   CT 1 MUS  0.0538
  29  H19       -4.4105   -0.7743   -0.8713   HC 1 MUS  0.0129
  30  H20       -4.4105   -0.7743    0.8713   HC 1 MUS  0.0129
  31  C12       -5.6131    0.7613    0.0000   CT 1 MUS -0.1736
  32  H21       -5.6340    1.3992    0.8775   H1 1 MUS  0.0489
  33  H22       -5.6340    1.3992   -0.8775   H1 1 MUS  0.0489
  34   S1       -7.1516   -0.1610    0.0000    S 1 MUS  1.1594
  35   O1       -8.1791    0.8682    0.0000    O 1 MUS -0.6948
  36   O2       -7.1067   -0.9542   -1.2199    O 1 MUS -0.6948
  37   O3       -7.1067   -0.9542    1.2200    O 1 MUS -0.6948
  38   ST        8.5989   -0.6950    0.0000    S 1 MUS -0.2901
@<TRIPOS>BOND
    1     1     2  1
    2     1     3  1
    3     1     4  1
    4     4     5  1
    5     4     6  1
    6     4     7  1
    7     7     8  1
    8     7     9  1
    9     7    10  1
   10    10    11  1
   11    10    12  1
   12    10    13  1
   13    13    14  1
   14    13    15  1
   15    13    16  1
   16    16    17  1
   17    16    18  1
   18    16    19  1
   19    19    20  1
   20    19    21  1
   21    19    22  1
   22    22    23  1
   23    22    24  1
   24    22    25  1
   25    25    26  1
   26    25    27  1
   27    25    28  1
   28    28    29  1
   29    28    30  1
   30    28    31  1
   31    31    32  1
   32    31    33  1
   33    31    34  1
   34    34    35  1
   35    34    36  1
   36    34    37  1
   37    38     1  1
@<TRIPOS>SUBSTRUCTURE
	1 MUS			1 ****			0 ****  ****
