@<TRIPOS>MOLECULE
MUS
	37	34	1
SMALL
USER_CHARGES
@<TRIPOS>ATOM
   1   H1        8.2768    1.0157   -0.8703   HC 1 MUS -0.0072
   2   H2        8.2768    1.0157    0.8703   HC 1 MUS -0.0072
   3   C3        6.9504   -0.4364    0.0000   CT 1 MUS  0.0168
   4   H3        6.9313   -1.0903   -0.8706   HC 1 MUS -0.0034
   5   H4        6.9313   -1.0903    0.8706   HC 1 MUS -0.0034
   6   C4        5.6986    0.4429   -0.0000   CT 1 MUS  0.0028
   7   H5        5.7192    1.0966    0.8706   HC 1 MUS -0.0103
   8   H6        5.7192    1.0966   -0.8706   HC 1 MUS -0.0103
   9   C5        4.3945   -0.3572    0.0000   CT 1 MUS  0.0203
  10   H7        4.3745   -1.0110   -0.8705   HC 1 MUS -0.0140
  11   H8        4.3745   -1.0110    0.8705   HC 1 MUS -0.0140
  12   C6        3.1424    0.5220   -0.0000   CT 1 MUS  0.0207
  13   H9        3.1633    1.1759    0.8706   HC 1 MUS -0.0121
  14  H10        3.1633    1.1759   -0.8706   HC 1 MUS -0.0121
  15   C7        1.8381   -0.2777    0.0000   CT 1 MUS  0.0269
  16  H11        1.8181   -0.9316   -0.8704   HC 1 MUS -0.0129
  17  H12        1.8181   -0.9316    0.8705   HC 1 MUS -0.0129
  18   C8        0.5854    0.6009   -0.0000   CT 1 MUS  0.0146
  19  H13        0.6067    1.2550    0.8707   HC 1 MUS -0.0177
  20  H14        0.6067    1.2550   -0.8707   HC 1 MUS -0.0177
  21   C9       -0.7192   -0.1986    0.0000   CT 1 MUS  0.0139
  22  H15       -0.7399   -0.8525   -0.8703   HC 1 MUS -0.0125
  23  H16       -0.7399   -0.8525    0.8703   HC 1 MUS -0.0125
  24  C10       -1.9731    0.6785   -0.0000   CT 1 MUS  0.0257
  25  H17       -1.9511    1.3327    0.8711   HC 1 MUS -0.0151
  26  H18       -1.9511    1.3327   -0.8711   HC 1 MUS -0.0151
  27  C11       -3.2729   -0.1298    0.0000   CT 1 MUS  0.0494
  28  H19       -3.3053   -0.7761   -0.8712   HC 1 MUS  0.0089
  29  H20       -3.3053   -0.7761    0.8712   HC 1 MUS  0.0089
  30  C12       -4.5159    0.7531   -0.0000   CT 1 MUS -0.1924
  31  H21       -4.5402    1.3910    0.8774   H1 1 MUS  0.0492
  32  H22       -4.5402    1.3910   -0.8775   H1 1 MUS  0.0492
  33   S1       -6.0496   -0.1771   -0.0000    S 1 MUS  1.1445
  34   O1       -7.0826    0.8466   -0.0000    O 1 MUS -0.6957
  35   O2       -6.0009   -0.9702   -1.2199    O 1 MUS -0.6957
  36   O3       -6.0009   -0.9701    1.2199    O 1 MUS -0.6957
  37   ST        8.2547    0.3630   -0.0000    S 1 MUS  0.0365
@<TRIPOS>BOND
    1     3     4  1
    2     3     5  1
    3     3     6  1
    4     6     7  1
    5     6     8  1
    6     6     9  1
    7     9    10  1
    8     9    11  1
    9     9    12  1
   10    12    13  1
   11    12    14  1
   12    12    15  1
   13    15    16  1
   14    15    17  1
   15    15    18  1
   16    18    19  1
   17    18    20  1
   18    18    21  1
   19    21    22  1
   20    21    23  1
   21    21    24  1
   22    24    25  1
   23    24    26  1
   24    24    27  1
   25    27    28  1
   26    27    29  1
   27    27    30  1
   28    30    31  1
   29    30    32  1
   30    30    33  1
   31    33    34  1
   32    33    35  1
   33    33    36  1
   34    37     3  1
@<TRIPOS>SUBSTRUCTURE
	1 MUS			1 ****			0 ****  ****
