@<TRIPOS>MOLECULE
OCT
	25	22	1
SMALL
USER_CHARGES
@<TRIPOS>ATOM
   1   H4        3.8363    1.1314    0.8703   HC 1 OCT -0.0043
   2   H5        3.8363    1.1314   -0.8703   HC 1 OCT -0.0043
   3   C3        2.5561   -0.3615    0.0000   CT 1 OCT  0.0086
   4   H6        2.5571   -1.0155   -0.8707   HC 1 OCT -0.0014
   5   H7        2.5571   -1.0155    0.8707   HC 1 OCT -0.0014
   6   C4        1.2780    0.4791   -0.0000   CT 1 OCT  0.0054
   7   H8        1.2781    1.1329    0.8707   HC 1 OCT -0.0079
   8   H9        1.2781    1.1329   -0.8707   HC 1 OCT -0.0079
   9   C5        0.0000   -0.3618   -0.0000   CT 1 OCT  0.0231
  10  H10        0.0000   -1.0155   -0.8706   HC 1 OCT -0.0130
  11  H11        0.0000   -1.0155    0.8706   HC 1 OCT -0.0130
  12   C6       -1.2780    0.4791   -0.0000   CT 1 OCT  0.0054
  13  H12       -1.2781    1.1329    0.8707   HC 1 OCT -0.0079
  14  H13       -1.2781    1.1329   -0.8707   HC 1 OCT -0.0079
  15   C7       -2.5561   -0.3615   -0.0000   CT 1 OCT  0.0086
  16  H14       -2.5571   -1.0155   -0.8707   HC 1 OCT -0.0014
  17  H15       -2.5571   -1.0155    0.8707   HC 1 OCT -0.0014
  18   C8       -3.8346    0.4784    0.0000   CT 1 OCT  0.0317
  19  H16       -3.8363    1.1314    0.8703   HC 1 OCT -0.0043
  20  H17       -3.8363    1.1314   -0.8703   HC 1 OCT -0.0043
  21   C9       -5.1068   -0.3686    0.0000   CT 1 OCT -0.0755
  22  H18       -5.9955    0.2551    0.0000   HC 1 OCT  0.0132
  23  H19       -5.1518   -1.0083   -0.8769   HC 1 OCT  0.0132
  24  H20       -5.1518   -1.0083    0.8769   HC 1 OCT  0.0132
  25   ST        3.8346    0.4784    0.0000    S 1 OCT  0.0317
@<TRIPOS>BOND
    1     3     4  1
    2     3     5  1
    3     3     6  1
    4     6     7  1
    5     6     8  1
    6     6     9  1
    7     9    10  1
    8     9    11  1
    9     9    12  1
   10    12    13  1
   11    12    14  1
   12    12    15  1
   13    15    16  1
   14    15    17  1
   15    15    18  1
   16    18    19  1
   17    18    20  1
   18    18    21  1
   19    21    22  1
   20    21    23  1
   21    21    24  1
   22    25     3  1
@<TRIPOS>SUBSTRUCTURE
	1 OCT			1 ****			0 ****  ****
