@<TRIPOS>MOLECULE
OCT
	26	25	1
SMALL
USER_CHARGES
@<TRIPOS>ATOM
   1   C9       -6.1986   -0.3096   -0.0000   CT 1 OCT -0.0635
   2  H18       -7.0786    0.3262    0.0000   HC 1 OCT  0.0185
   3  H19       -6.2523   -0.9486    0.8769   HC 1 OCT  0.0185
   4  H20       -6.2523   -0.9486   -0.8769   HC 1 OCT  0.0185
   5   C2       -4.9151    0.5201    0.0000   CT 1 OCT  0.0412
   6   H4       -4.9078    1.1729   -0.8704   HC 1 OCT  0.0012
   7   H5       -4.9078    1.1729    0.8704   HC 1 OCT  0.0012
   8   C3       -3.6483   -0.3374   -0.0000   CT 1 OCT  0.0183
   9   H6       -3.6580   -0.9911    0.8707   HC 1 OCT  0.0053
  10   H7       -3.6580   -0.9911   -0.8707   HC 1 OCT  0.0053
  11   C4       -2.3592    0.4861    0.0000   CT 1 OCT  0.0143
  12   H8       -2.3502    1.1396   -0.8708   HC 1 OCT -0.0022
  13   H9       -2.3502    1.1396    0.8708   HC 1 OCT -0.0022
  14   C5       -1.0933   -0.3730   -0.0000   CT 1 OCT  0.0354
  15  H10       -1.1015   -1.0261    0.8707   HC 1 OCT -0.0078
  16  H11       -1.1015   -1.0261   -0.8707   HC 1 OCT -0.0078
  17   C6        0.1952    0.4520    0.0000   CT 1 OCT  0.0149
  18  H12        0.2047    1.1044   -0.8712   HC 1 OCT  0.0018
  19  H13        0.2047    1.1044    0.8712   HC 1 OCT  0.0018
  20   C7        1.4580   -0.4130    0.0000   CT 1 OCT  0.0312
  21  H14        1.4554   -1.0617    0.8718   HC 1 OCT  0.0419
  22  H15        1.4554   -1.0617   -0.8718   HC 1 OCT  0.0419
  23   C8        2.7344    0.4271    0.0000   CT 1 OCT -0.1465
  24  H16        2.7630    1.0651   -0.8768   H1 1 OCT  0.1010
  25  H17        2.7630    1.0651    0.8768   H1 1 OCT  0.1010
  26   ST        4.2069   -0.6389    0.0000    S 1 OCT -0.2777
@<TRIPOS>BOND
    1     1     2  1
    2     1     3  1
    3     1     4  1
    4     1     5  1
    5     5     6  1
    6     5     7  1
    7     5     8  1
    8     8     9  1
    9     8    10  1
   10     8    11  1
   11    11    12  1
   12    11    13  1
   13    11    14  1
   14    14    15  1
   15    14    16  1
   16    14    17  1
   17    17    18  1
   18    17    19  1
   19    17    20  1
   20    20    21  1
   21    20    22  1
   22    20    23  1
   23    23    24  1
   24    23    25  1
   25    26    23  1
@<TRIPOS>SUBSTRUCTURE
	1 OCT			1 ****			0 ****  ****
