@<TRIPOS>MOLECULE
BUT
	14	13	1
SMALL
USER_CHARGES
@<TRIPOS>ATOM
   1   C2        0.0000    0.0000    0.0000   CT 1 BUT -0.0438
   2   H4       -0.0016    0.6529   -0.8703   HC 1 BUT  0.0119
   3   H5       -0.0016    0.6529    0.8703   HC 1 BUT  0.0119
   4   C3        1.2785   -0.8398    0.0000   CT 1 BUT  0.0013
   5   H6        1.2785   -1.4939    0.8707   HC 1 BUT  0.0104
   6   H7        1.2785   -1.4939   -0.8707   HC 1 BUT  0.0104
   7   C4        2.5570    0.0000    0.0000   CT 1 BUT  0.0296
   8   H8        2.5585    0.6529   -0.8703   HC 1 BUT  0.0004
   9   H9        2.5586    0.6529    0.8704   HC 1 BUT  0.0004
  10   C5        3.8292   -0.8470   -0.0000   CT 1 BUT -0.0781
  11  H10        4.7179   -0.2233   -0.0000   HC 1 BUT  0.0152
  12  H11        3.8742   -1.4867    0.8769   HC 1 BUT  0.0152
  13  H12        3.8742   -1.4867   -0.8769   HC 1 BUT  0.0152
  14   ST        1.7426   -0.4508   -0.0000    S 1 BUT  0.0000
@<TRIPOS>BOND
    1     1     2  1
    2     1     3  1
    3     1     4  1
    4     4     5  1
    5     4     6  1
    6     4     7  1
    7     7     8  1
    8     7     9  1
    9     7    10  1
   10    10    11  1
   11    10    12  1
   12    10    13  1
   13    14     1  1
@<TRIPOS>SUBSTRUCTURE
	1 BUT			1 ****			0 ****  ****
