@<TRIPOS>MOLECULE
PET
	18	18	1
SMALL
USER_CHARGES
@<TRIPOS>ATOM
   1   C1       -2.3687    0.0000    0.9271   CA 1 PET  0.0150
   2   C2       -3.0627    1.1934    0.7594   CA 1 PET -0.1257
   3   H1       -2.5471    2.1295    0.8910   HA 1 PET  0.1236
   4   C3       -4.4085    1.1962    0.4307   CA 1 PET -0.1853
   5   H2       -4.9265    2.1310    0.3084   HA 1 PET  0.1353
   6   C4       -5.0871    0.0000    0.2643   CA 1 PET -0.0856
   7   H3       -6.1325    0.0000    0.0120   HA 1 PET  0.1159
   8   C5       -4.4085   -1.1962    0.4307   CA 1 PET -0.1853
   9   H4       -4.9265   -2.1310    0.3084   HA 1 PET  0.1353
  10   C6       -3.0627   -1.1934    0.7594   CA 1 PET -0.1257
  11   H5       -2.5471   -2.1295    0.8910   HA 1 PET  0.1236
  12   C7       -0.8899    0.0000    1.2513   CT 1 PET -0.0756
  13   H6       -0.6516   -0.8704    1.8571   HC 1 PET  0.0340
  14   H7       -0.6516    0.8704    1.8571   HC 1 PET  0.0340
  15   C8        0.0000    0.0000    0.0000   CT 1 PET  0.0874
  16   H8       -0.2383   -0.8696   -0.6068   HC 1 PET -0.0103
  17   H9       -0.2383    0.8696   -0.6068   HC 1 PET -0.0103
  18   ST        1.7966   -0.0000    0.1114    S 1 PET -0.0018
@<TRIPOS>BOND
    1     1     2  1
    2     1    10  1
    3     1    12  1
    4     2     3  1
    5     2     4  1
    6     4     5  1
    7     4     6  1
    8     6     7  1
    9     6     8  1
   10     8     9  1
   11     8    10  1
   12    10    11  1
   13    12    13  1
   14    12    14  1
   15    12    15  1
   16    15    16  1
   17    15    17  1
   18    18    15  1
@<TRIPOS>SUBSTRUCTURE
	1 PET			1 ****			0 ****  ****
